* NGSPICE file created from tiny_user_project.ext - technology: gf180mcuC

* Black-box entry subcircuit for gf180mcu_fd_sc_mcu7t5v0__fill_1 abstract view
.subckt gf180mcu_fd_sc_mcu7t5v0__fill_1 VDD VSS
.ends

* Black-box entry subcircuit for gf180mcu_fd_sc_mcu7t5v0__fillcap_64 abstract view
.subckt gf180mcu_fd_sc_mcu7t5v0__fillcap_64 VDD VSS
.ends

* Black-box entry subcircuit for gf180mcu_fd_sc_mcu7t5v0__fillcap_4 abstract view
.subckt gf180mcu_fd_sc_mcu7t5v0__fillcap_4 VDD VSS
.ends

* Black-box entry subcircuit for gf180mcu_fd_sc_mcu7t5v0__fill_2 abstract view
.subckt gf180mcu_fd_sc_mcu7t5v0__fill_2 VDD VSS
.ends

* Black-box entry subcircuit for gf180mcu_fd_sc_mcu7t5v0__fillcap_16 abstract view
.subckt gf180mcu_fd_sc_mcu7t5v0__fillcap_16 VDD VSS
.ends

* Black-box entry subcircuit for gf180mcu_fd_sc_mcu7t5v0__fillcap_32 abstract view
.subckt gf180mcu_fd_sc_mcu7t5v0__fillcap_32 VDD VSS
.ends

* Black-box entry subcircuit for gf180mcu_fd_sc_mcu7t5v0__fillcap_8 abstract view
.subckt gf180mcu_fd_sc_mcu7t5v0__fillcap_8 VDD VSS
.ends

* Black-box entry subcircuit for gf180mcu_fd_sc_mcu7t5v0__filltie abstract view
.subckt gf180mcu_fd_sc_mcu7t5v0__filltie VDD VSS
.ends

* Black-box entry subcircuit for gf180mcu_fd_sc_mcu7t5v0__endcap abstract view
.subckt gf180mcu_fd_sc_mcu7t5v0__endcap VDD VSS
.ends

* Black-box entry subcircuit for gf180mcu_fd_sc_mcu7t5v0__tiel abstract view
.subckt gf180mcu_fd_sc_mcu7t5v0__tiel ZN VDD VSS
.ends

.subckt tiny_user_project io_in[0] io_in[10] io_in[11] io_in[12] io_in[13] io_in[14]
+ io_in[15] io_in[16] io_in[17] io_in[18] io_in[19] io_in[1] io_in[20] io_in[21] io_in[22]
+ io_in[23] io_in[24] io_in[25] io_in[26] io_in[27] io_in[28] io_in[29] io_in[2] io_in[30]
+ io_in[31] io_in[32] io_in[33] io_in[34] io_in[35] io_in[36] io_in[37] io_in[3] io_in[4]
+ io_in[5] io_in[6] io_in[7] io_in[8] io_in[9] io_oeb[0] io_oeb[10] io_oeb[11] io_oeb[12]
+ io_oeb[13] io_oeb[14] io_oeb[15] io_oeb[16] io_oeb[17] io_oeb[18] io_oeb[19] io_oeb[1]
+ io_oeb[20] io_oeb[21] io_oeb[22] io_oeb[23] io_oeb[24] io_oeb[25] io_oeb[26] io_oeb[27]
+ io_oeb[28] io_oeb[29] io_oeb[2] io_oeb[30] io_oeb[31] io_oeb[32] io_oeb[33] io_oeb[34]
+ io_oeb[35] io_oeb[36] io_oeb[37] io_oeb[3] io_oeb[4] io_oeb[5] io_oeb[6] io_oeb[7]
+ io_oeb[8] io_oeb[9] io_out[0] io_out[10] io_out[11] io_out[12] io_out[13] io_out[14]
+ io_out[15] io_out[16] io_out[17] io_out[18] io_out[19] io_out[1] io_out[20] io_out[21]
+ io_out[22] io_out[23] io_out[24] io_out[25] io_out[26] io_out[27] io_out[28] io_out[29]
+ io_out[2] io_out[30] io_out[31] io_out[32] io_out[33] io_out[34] io_out[35] io_out[36]
+ io_out[37] io_out[3] io_out[4] io_out[5] io_out[6] io_out[7] io_out[8] io_out[9]
+ irq[0] irq[1] irq[2] la_data_in[0] la_data_in[100] la_data_in[101] la_data_in[102]
+ la_data_in[103] la_data_in[104] la_data_in[105] la_data_in[106] la_data_in[107]
+ la_data_in[108] la_data_in[109] la_data_in[10] la_data_in[110] la_data_in[111] la_data_in[112]
+ la_data_in[113] la_data_in[114] la_data_in[115] la_data_in[116] la_data_in[117]
+ la_data_in[118] la_data_in[119] la_data_in[11] la_data_in[120] la_data_in[121] la_data_in[122]
+ la_data_in[123] la_data_in[124] la_data_in[125] la_data_in[126] la_data_in[127]
+ la_data_in[12] la_data_in[13] la_data_in[14] la_data_in[15] la_data_in[16] la_data_in[17]
+ la_data_in[18] la_data_in[19] la_data_in[1] la_data_in[20] la_data_in[21] la_data_in[22]
+ la_data_in[23] la_data_in[24] la_data_in[25] la_data_in[26] la_data_in[27] la_data_in[28]
+ la_data_in[29] la_data_in[2] la_data_in[30] la_data_in[31] la_data_in[32] la_data_in[33]
+ la_data_in[34] la_data_in[35] la_data_in[36] la_data_in[37] la_data_in[38] la_data_in[39]
+ la_data_in[3] la_data_in[40] la_data_in[41] la_data_in[42] la_data_in[43] la_data_in[44]
+ la_data_in[45] la_data_in[46] la_data_in[47] la_data_in[48] la_data_in[49] la_data_in[4]
+ la_data_in[50] la_data_in[51] la_data_in[52] la_data_in[53] la_data_in[54] la_data_in[55]
+ la_data_in[56] la_data_in[57] la_data_in[58] la_data_in[59] la_data_in[5] la_data_in[60]
+ la_data_in[61] la_data_in[62] la_data_in[63] la_data_in[64] la_data_in[65] la_data_in[66]
+ la_data_in[67] la_data_in[68] la_data_in[69] la_data_in[6] la_data_in[70] la_data_in[71]
+ la_data_in[72] la_data_in[73] la_data_in[74] la_data_in[75] la_data_in[76] la_data_in[77]
+ la_data_in[78] la_data_in[79] la_data_in[7] la_data_in[80] la_data_in[81] la_data_in[82]
+ la_data_in[83] la_data_in[84] la_data_in[85] la_data_in[86] la_data_in[87] la_data_in[88]
+ la_data_in[89] la_data_in[8] la_data_in[90] la_data_in[91] la_data_in[92] la_data_in[93]
+ la_data_in[94] la_data_in[95] la_data_in[96] la_data_in[97] la_data_in[98] la_data_in[99]
+ la_data_in[9] la_data_out[0] la_data_out[100] la_data_out[101] la_data_out[102]
+ la_data_out[103] la_data_out[104] la_data_out[105] la_data_out[106] la_data_out[107]
+ la_data_out[108] la_data_out[109] la_data_out[10] la_data_out[110] la_data_out[111]
+ la_data_out[112] la_data_out[113] la_data_out[114] la_data_out[115] la_data_out[116]
+ la_data_out[117] la_data_out[118] la_data_out[119] la_data_out[11] la_data_out[120]
+ la_data_out[121] la_data_out[122] la_data_out[123] la_data_out[124] la_data_out[125]
+ la_data_out[126] la_data_out[127] la_data_out[12] la_data_out[13] la_data_out[14]
+ la_data_out[15] la_data_out[16] la_data_out[17] la_data_out[18] la_data_out[19]
+ la_data_out[1] la_data_out[20] la_data_out[21] la_data_out[22] la_data_out[23] la_data_out[24]
+ la_data_out[25] la_data_out[26] la_data_out[27] la_data_out[28] la_data_out[29]
+ la_data_out[2] la_data_out[30] la_data_out[31] la_data_out[32] la_data_out[33] la_data_out[34]
+ la_data_out[35] la_data_out[36] la_data_out[37] la_data_out[38] la_data_out[39]
+ la_data_out[3] la_data_out[40] la_data_out[41] la_data_out[42] la_data_out[43] la_data_out[44]
+ la_data_out[45] la_data_out[46] la_data_out[47] la_data_out[48] la_data_out[49]
+ la_data_out[4] la_data_out[50] la_data_out[51] la_data_out[52] la_data_out[53] la_data_out[54]
+ la_data_out[55] la_data_out[56] la_data_out[57] la_data_out[58] la_data_out[59]
+ la_data_out[5] la_data_out[60] la_data_out[61] la_data_out[62] la_data_out[63] la_data_out[64]
+ la_data_out[65] la_data_out[66] la_data_out[67] la_data_out[68] la_data_out[69]
+ la_data_out[6] la_data_out[70] la_data_out[71] la_data_out[72] la_data_out[73] la_data_out[74]
+ la_data_out[75] la_data_out[76] la_data_out[77] la_data_out[78] la_data_out[79]
+ la_data_out[7] la_data_out[80] la_data_out[81] la_data_out[82] la_data_out[83] la_data_out[84]
+ la_data_out[85] la_data_out[86] la_data_out[87] la_data_out[88] la_data_out[89]
+ la_data_out[8] la_data_out[90] la_data_out[91] la_data_out[92] la_data_out[93] la_data_out[94]
+ la_data_out[95] la_data_out[96] la_data_out[97] la_data_out[98] la_data_out[99]
+ la_data_out[9] la_oenb[0] la_oenb[100] la_oenb[101] la_oenb[102] la_oenb[103] la_oenb[104]
+ la_oenb[105] la_oenb[106] la_oenb[107] la_oenb[108] la_oenb[109] la_oenb[10] la_oenb[110]
+ la_oenb[111] la_oenb[112] la_oenb[113] la_oenb[114] la_oenb[115] la_oenb[116] la_oenb[117]
+ la_oenb[118] la_oenb[119] la_oenb[11] la_oenb[120] la_oenb[121] la_oenb[122] la_oenb[123]
+ la_oenb[124] la_oenb[125] la_oenb[126] la_oenb[127] la_oenb[12] la_oenb[13] la_oenb[14]
+ la_oenb[15] la_oenb[16] la_oenb[17] la_oenb[18] la_oenb[19] la_oenb[1] la_oenb[20]
+ la_oenb[21] la_oenb[22] la_oenb[23] la_oenb[24] la_oenb[25] la_oenb[26] la_oenb[27]
+ la_oenb[28] la_oenb[29] la_oenb[2] la_oenb[30] la_oenb[31] la_oenb[32] la_oenb[33]
+ la_oenb[34] la_oenb[35] la_oenb[36] la_oenb[37] la_oenb[38] la_oenb[39] la_oenb[3]
+ la_oenb[40] la_oenb[41] la_oenb[42] la_oenb[43] la_oenb[44] la_oenb[45] la_oenb[46]
+ la_oenb[47] la_oenb[48] la_oenb[49] la_oenb[4] la_oenb[50] la_oenb[51] la_oenb[52]
+ la_oenb[53] la_oenb[54] la_oenb[55] la_oenb[56] la_oenb[57] la_oenb[58] la_oenb[59]
+ la_oenb[5] la_oenb[60] la_oenb[61] la_oenb[62] la_oenb[63] la_oenb[64] la_oenb[65]
+ la_oenb[66] la_oenb[67] la_oenb[68] la_oenb[69] la_oenb[6] la_oenb[70] la_oenb[71]
+ la_oenb[72] la_oenb[73] la_oenb[74] la_oenb[75] la_oenb[76] la_oenb[77] la_oenb[78]
+ la_oenb[79] la_oenb[7] la_oenb[80] la_oenb[81] la_oenb[82] la_oenb[83] la_oenb[84]
+ la_oenb[85] la_oenb[86] la_oenb[87] la_oenb[88] la_oenb[89] la_oenb[8] la_oenb[90]
+ la_oenb[91] la_oenb[92] la_oenb[93] la_oenb[94] la_oenb[95] la_oenb[96] la_oenb[97]
+ la_oenb[98] la_oenb[99] la_oenb[9] vdd vss wb_clk_i wb_rst_i wbs_ack_o wbs_adr_i[0]
+ wbs_adr_i[10] wbs_adr_i[11] wbs_adr_i[12] wbs_adr_i[13] wbs_adr_i[14] wbs_adr_i[15]
+ wbs_adr_i[16] wbs_adr_i[17] wbs_adr_i[18] wbs_adr_i[19] wbs_adr_i[1] wbs_adr_i[20]
+ wbs_adr_i[21] wbs_adr_i[22] wbs_adr_i[23] wbs_adr_i[24] wbs_adr_i[25] wbs_adr_i[26]
+ wbs_adr_i[27] wbs_adr_i[28] wbs_adr_i[29] wbs_adr_i[2] wbs_adr_i[30] wbs_adr_i[31]
+ wbs_adr_i[3] wbs_adr_i[4] wbs_adr_i[5] wbs_adr_i[6] wbs_adr_i[7] wbs_adr_i[8] wbs_adr_i[9]
+ wbs_cyc_i wbs_dat_i[0] wbs_dat_i[10] wbs_dat_i[11] wbs_dat_i[12] wbs_dat_i[13] wbs_dat_i[14]
+ wbs_dat_i[15] wbs_dat_i[16] wbs_dat_i[17] wbs_dat_i[18] wbs_dat_i[19] wbs_dat_i[1]
+ wbs_dat_i[20] wbs_dat_i[21] wbs_dat_i[22] wbs_dat_i[23] wbs_dat_i[24] wbs_dat_i[25]
+ wbs_dat_i[26] wbs_dat_i[27] wbs_dat_i[28] wbs_dat_i[29] wbs_dat_i[2] wbs_dat_i[30]
+ wbs_dat_i[31] wbs_dat_i[3] wbs_dat_i[4] wbs_dat_i[5] wbs_dat_i[6] wbs_dat_i[7] wbs_dat_i[8]
+ wbs_dat_i[9] wbs_dat_o[0] wbs_dat_o[10] wbs_dat_o[11] wbs_dat_o[12] wbs_dat_o[13]
+ wbs_dat_o[14] wbs_dat_o[15] wbs_dat_o[16] wbs_dat_o[17] wbs_dat_o[18] wbs_dat_o[19]
+ wbs_dat_o[1] wbs_dat_o[20] wbs_dat_o[21] wbs_dat_o[22] wbs_dat_o[23] wbs_dat_o[24]
+ wbs_dat_o[25] wbs_dat_o[26] wbs_dat_o[27] wbs_dat_o[28] wbs_dat_o[29] wbs_dat_o[2]
+ wbs_dat_o[30] wbs_dat_o[31] wbs_dat_o[3] wbs_dat_o[4] wbs_dat_o[5] wbs_dat_o[6]
+ wbs_dat_o[7] wbs_dat_o[8] wbs_dat_o[9] wbs_sel_i[0] wbs_sel_i[1] wbs_sel_i[2] wbs_sel_i[3]
+ wbs_stb_i wbs_we_i
XFILLER_95_851 vdd vss gf180mcu_fd_sc_mcu7t5v0__fill_1
XFILLER_27_428 vdd vss gf180mcu_fd_sc_mcu7t5v0__fillcap_64
XFILLER_82_534 vdd vss gf180mcu_fd_sc_mcu7t5v0__fillcap_64
XFILLER_54_247 vdd vss gf180mcu_fd_sc_mcu7t5v0__fill_1
XFILLER_199_208 vdd vss gf180mcu_fd_sc_mcu7t5v0__fillcap_4
XFILLER_58_1757 vdd vss gf180mcu_fd_sc_mcu7t5v0__fill_2
XFILLER_165_1131 vdd vss gf180mcu_fd_sc_mcu7t5v0__fillcap_4
XFILLER_23_634 vdd vss gf180mcu_fd_sc_mcu7t5v0__fillcap_4
XFILLER_1_1490 vdd vss gf180mcu_fd_sc_mcu7t5v0__fill_1
XFILLER_145_1738 vdd vss gf180mcu_fd_sc_mcu7t5v0__fillcap_16
XFILLER_195_425 vdd vss gf180mcu_fd_sc_mcu7t5v0__fill_1
XFILLER_52_1312 vdd vss gf180mcu_fd_sc_mcu7t5v0__fill_1
XFILLER_182_108 vdd vss gf180mcu_fd_sc_mcu7t5v0__fillcap_64
XFILLER_104_1457 vdd vss gf180mcu_fd_sc_mcu7t5v0__fillcap_64
XFILLER_148_385 vdd vss gf180mcu_fd_sc_mcu7t5v0__fillcap_4
XFILLER_178_1525 vdd vss gf180mcu_fd_sc_mcu7t5v0__fill_1
XFILLER_87_1419 vdd vss gf180mcu_fd_sc_mcu7t5v0__fill_1
XFILLER_102_1170 vdd vss gf180mcu_fd_sc_mcu7t5v0__fill_1
XFILLER_164_889 vdd vss gf180mcu_fd_sc_mcu7t5v0__fillcap_64
XFILLER_11_1064 vdd vss gf180mcu_fd_sc_mcu7t5v0__fill_1
XFILLER_123_208 vdd vss gf180mcu_fd_sc_mcu7t5v0__fillcap_4
XFILLER_65_1706 vdd vss gf180mcu_fd_sc_mcu7t5v0__fillcap_32
XFILLER_117_783 vdd vss gf180mcu_fd_sc_mcu7t5v0__fillcap_64
XFILLER_191_1703 vdd vss gf180mcu_fd_sc_mcu7t5v0__fill_1
XFILLER_2_527 vdd vss gf180mcu_fd_sc_mcu7t5v0__fillcap_4
XFILLER_172_1102 vdd vss gf180mcu_fd_sc_mcu7t5v0__fillcap_64
XFILLER_78_818 vdd vss gf180mcu_fd_sc_mcu7t5v0__fillcap_64
XFILLER_89_144 vdd vss gf180mcu_fd_sc_mcu7t5v0__fillcap_64
XFILLER_191_1758 vdd vss gf180mcu_fd_sc_mcu7t5v0__fill_1
XFILLER_215_1419 vdd vss gf180mcu_fd_sc_mcu7t5v0__fill_1
XFILLER_105_989 vdd vss gf180mcu_fd_sc_mcu7t5v0__fillcap_4
XFILLER_137_1277 vdd vss gf180mcu_fd_sc_mcu7t5v0__fill_1
XFILLER_58_531 vdd vss gf180mcu_fd_sc_mcu7t5v0__fill_1
XFILLER_246_621 vdd vss gf180mcu_fd_sc_mcu7t5v0__fillcap_8
XFILLER_246_632 vdd vss gf180mcu_fd_sc_mcu7t5v0__fillcap_16
XFILLER_19_918 vdd vss gf180mcu_fd_sc_mcu7t5v0__fillcap_4
XFILLER_115_1564 vdd vss gf180mcu_fd_sc_mcu7t5v0__fillcap_64
XFILLER_85_350 vdd vss gf180mcu_fd_sc_mcu7t5v0__fillcap_4
XFILLER_189_1632 vdd vss gf180mcu_fd_sc_mcu7t5v0__fill_1
XTAP_3202 vdd vss gf180mcu_fd_sc_mcu7t5v0__filltie
XTAP_3213 vdd vss gf180mcu_fd_sc_mcu7t5v0__filltie
XTAP_3224 vdd vss gf180mcu_fd_sc_mcu7t5v0__filltie
XTAP_3235 vdd vss gf180mcu_fd_sc_mcu7t5v0__filltie
XTAP_2501 vdd vss gf180mcu_fd_sc_mcu7t5v0__filltie
XTAP_3246 vdd vss gf180mcu_fd_sc_mcu7t5v0__filltie
XTAP_2512 vdd vss gf180mcu_fd_sc_mcu7t5v0__filltie
XTAP_3257 vdd vss gf180mcu_fd_sc_mcu7t5v0__filltie
XFILLER_218_389 vdd vss gf180mcu_fd_sc_mcu7t5v0__fill_1
XTAP_2523 vdd vss gf180mcu_fd_sc_mcu7t5v0__filltie
XTAP_3268 vdd vss gf180mcu_fd_sc_mcu7t5v0__filltie
XFILLER_73_567 vdd vss gf180mcu_fd_sc_mcu7t5v0__fill_1
XTAP_2534 vdd vss gf180mcu_fd_sc_mcu7t5v0__filltie
XTAP_3279 vdd vss gf180mcu_fd_sc_mcu7t5v0__filltie
XTAP_1800 vdd vss gf180mcu_fd_sc_mcu7t5v0__filltie
XTAP_2545 vdd vss gf180mcu_fd_sc_mcu7t5v0__filltie
XTAP_1811 vdd vss gf180mcu_fd_sc_mcu7t5v0__filltie
XTAP_2556 vdd vss gf180mcu_fd_sc_mcu7t5v0__filltie
XFILLER_165_2 vdd vss gf180mcu_fd_sc_mcu7t5v0__fillcap_64
XTAP_1822 vdd vss gf180mcu_fd_sc_mcu7t5v0__filltie
XTAP_2567 vdd vss gf180mcu_fd_sc_mcu7t5v0__filltie
XTAP_1833 vdd vss gf180mcu_fd_sc_mcu7t5v0__filltie
XTAP_2578 vdd vss gf180mcu_fd_sc_mcu7t5v0__filltie
XTAP_1844 vdd vss gf180mcu_fd_sc_mcu7t5v0__filltie
XTAP_2589 vdd vss gf180mcu_fd_sc_mcu7t5v0__filltie
XFILLER_242_882 vdd vss gf180mcu_fd_sc_mcu7t5v0__fillcap_4
XTAP_1855 vdd vss gf180mcu_fd_sc_mcu7t5v0__filltie
XTAP_1866 vdd vss gf180mcu_fd_sc_mcu7t5v0__filltie
XTAP_1877 vdd vss gf180mcu_fd_sc_mcu7t5v0__filltie
XFILLER_13_144 vdd vss gf180mcu_fd_sc_mcu7t5v0__fillcap_64
XFILLER_144_1237 vdd vss gf180mcu_fd_sc_mcu7t5v0__fillcap_4
XFILLER_158_105 vdd vss gf180mcu_fd_sc_mcu7t5v0__fill_1
XFILLER_201_212 vdd vss gf180mcu_fd_sc_mcu7t5v0__fill_1
XTAP_1888 vdd vss gf180mcu_fd_sc_mcu7t5v0__filltie
XTAP_1899 vdd vss gf180mcu_fd_sc_mcu7t5v0__filltie
XFILLER_74_1592 vdd vss gf180mcu_fd_sc_mcu7t5v0__fillcap_4
XFILLER_9_137 vdd vss gf180mcu_fd_sc_mcu7t5v0__fillcap_4
XFILLER_6_811 vdd vss gf180mcu_fd_sc_mcu7t5v0__fillcap_4
XFILLER_115_709 vdd vss gf180mcu_fd_sc_mcu7t5v0__fill_1
XFILLER_181_141 vdd vss gf180mcu_fd_sc_mcu7t5v0__fill_1
XFILLER_202_1592 vdd vss gf180mcu_fd_sc_mcu7t5v0__fillcap_4
XFILLER_5_354 vdd vss gf180mcu_fd_sc_mcu7t5v0__fill_1
XFILLER_170_815 vdd vss gf180mcu_fd_sc_mcu7t5v0__fill_1
XFILLER_9_1419 vdd vss gf180mcu_fd_sc_mcu7t5v0__fill_1
XFILLER_155_1344 vdd vss gf180mcu_fd_sc_mcu7t5v0__fillcap_4
XFILLER_237_1699 vdd vss gf180mcu_fd_sc_mcu7t5v0__fillcap_4
XFILLER_27_1060 vdd vss gf180mcu_fd_sc_mcu7t5v0__fillcap_4
XFILLER_42_1525 vdd vss gf180mcu_fd_sc_mcu7t5v0__fill_1
XFILLER_77_851 vdd vss gf180mcu_fd_sc_mcu7t5v0__fill_1
XFILLER_67_70 vdd vss gf180mcu_fd_sc_mcu7t5v0__fill_1
XTAP_5160 vdd vss gf180mcu_fd_sc_mcu7t5v0__filltie
XTAP_5171 vdd vss gf180mcu_fd_sc_mcu7t5v0__filltie
XTAP_5182 vdd vss gf180mcu_fd_sc_mcu7t5v0__filltie
XTAP_5193 vdd vss gf180mcu_fd_sc_mcu7t5v0__filltie
XFILLER_64_534 vdd vss gf180mcu_fd_sc_mcu7t5v0__fillcap_64
XTAP_4470 vdd vss gf180mcu_fd_sc_mcu7t5v0__filltie
XTAP_4481 vdd vss gf180mcu_fd_sc_mcu7t5v0__filltie
XFILLER_168_1738 vdd vss gf180mcu_fd_sc_mcu7t5v0__fill_1
XFILLER_36_247 vdd vss gf180mcu_fd_sc_mcu7t5v0__fill_1
XTAP_4492 vdd vss gf180mcu_fd_sc_mcu7t5v0__filltie
XFILLER_184_1028 vdd vss gf180mcu_fd_sc_mcu7t5v0__fill_1
XTAP_3780 vdd vss gf180mcu_fd_sc_mcu7t5v0__filltie
XTAP_3791 vdd vss gf180mcu_fd_sc_mcu7t5v0__filltie
XFILLER_60_740 vdd vss gf180mcu_fd_sc_mcu7t5v0__fillcap_4
XFILLER_162_1315 vdd vss gf180mcu_fd_sc_mcu7t5v0__fillcap_64
XFILLER_71_1209 vdd vss gf180mcu_fd_sc_mcu7t5v0__fillcap_64
XFILLER_177_425 vdd vss gf180mcu_fd_sc_mcu7t5v0__fill_1
XFILLER_232_392 vdd vss gf180mcu_fd_sc_mcu7t5v0__fillcap_64
XFILLER_18_1741 vdd vss gf180mcu_fd_sc_mcu7t5v0__fillcap_16
XFILLER_92_1670 vdd vss gf180mcu_fd_sc_mcu7t5v0__fillcap_64
XFILLER_53_1632 vdd vss gf180mcu_fd_sc_mcu7t5v0__fill_1
XFILLER_34_1031 vdd vss gf180mcu_fd_sc_mcu7t5v0__fillcap_64
XFILLER_80_2 vdd vss gf180mcu_fd_sc_mcu7t5v0__fill_1
XFILLER_193_918 vdd vss gf180mcu_fd_sc_mcu7t5v0__fillcap_4
XFILLER_242_1383 vdd vss gf180mcu_fd_sc_mcu7t5v0__fill_1
XFILLER_220_598 vdd vss gf180mcu_fd_sc_mcu7t5v0__fillcap_4
XFILLER_164_108 vdd vss gf180mcu_fd_sc_mcu7t5v0__fillcap_64
XFILLER_121_1067 vdd vss gf180mcu_fd_sc_mcu7t5v0__fillcap_64
XFILLER_220_1670 vdd vss gf180mcu_fd_sc_mcu7t5v0__fillcap_64
XFILLER_69_1138 vdd vss gf180mcu_fd_sc_mcu7t5v0__fillcap_64
XFILLER_195_1135 vdd vss gf180mcu_fd_sc_mcu7t5v0__fill_1
XFILLER_146_889 vdd vss gf180mcu_fd_sc_mcu7t5v0__fillcap_64
XFILLER_103_1490 vdd vss gf180mcu_fd_sc_mcu7t5v0__fill_1
XFILLER_105_208 vdd vss gf180mcu_fd_sc_mcu7t5v0__fillcap_4
XFILLER_160_314 vdd vss gf180mcu_fd_sc_mcu7t5v0__fillcap_4
XFILLER_173_1422 vdd vss gf180mcu_fd_sc_mcu7t5v0__fillcap_64
XFILLER_101_425 vdd vss gf180mcu_fd_sc_mcu7t5v0__fill_1
XFILLER_67_350 vdd vss gf180mcu_fd_sc_mcu7t5v0__fillcap_4
XFILLER_80_1095 vdd vss gf180mcu_fd_sc_mcu7t5v0__fillcap_4
XFILLER_228_676 vdd vss gf180mcu_fd_sc_mcu7t5v0__fillcap_64
XFILLER_83_854 vdd vss gf180mcu_fd_sc_mcu7t5v0__fillcap_64
XFILLER_242_101 vdd vss gf180mcu_fd_sc_mcu7t5v0__fillcap_4
XFILLER_55_567 vdd vss gf180mcu_fd_sc_mcu7t5v0__fill_1
XFILLER_110_1450 vdd vss gf180mcu_fd_sc_mcu7t5v0__fillcap_4
XFILLER_58_1521 vdd vss gf180mcu_fd_sc_mcu7t5v0__fillcap_4
XTAP_1107 vdd vss gf180mcu_fd_sc_mcu7t5v0__filltie
XTAP_1118 vdd vss gf180mcu_fd_sc_mcu7t5v0__filltie
XTAP_1129 vdd vss gf180mcu_fd_sc_mcu7t5v0__filltie
XFILLER_230_318 vdd vss gf180mcu_fd_sc_mcu7t5v0__fill_1
XFILLER_224_882 vdd vss gf180mcu_fd_sc_mcu7t5v0__fillcap_4
XFILLER_50_250 vdd vss gf180mcu_fd_sc_mcu7t5v0__fillcap_64
XFILLER_145_1557 vdd vss gf180mcu_fd_sc_mcu7t5v0__fillcap_4
XFILLER_71_1754 vdd vss gf180mcu_fd_sc_mcu7t5v0__fillcap_4
XFILLER_17_1273 vdd vss gf180mcu_fd_sc_mcu7t5v0__fillcap_4
XFILLER_32_1738 vdd vss gf180mcu_fd_sc_mcu7t5v0__fill_1
XFILLER_183_428 vdd vss gf180mcu_fd_sc_mcu7t5v0__fillcap_64
XFILLER_152_815 vdd vss gf180mcu_fd_sc_mcu7t5v0__fill_1
XFILLER_163_141 vdd vss gf180mcu_fd_sc_mcu7t5v0__fill_1
XFILLER_3_847 vdd vss gf180mcu_fd_sc_mcu7t5v0__fillcap_4
XFILLER_152_1528 vdd vss gf180mcu_fd_sc_mcu7t5v0__fillcap_64
XFILLER_59_851 vdd vss gf180mcu_fd_sc_mcu7t5v0__fill_1
XFILLER_24_1244 vdd vss gf180mcu_fd_sc_mcu7t5v0__fillcap_64
XFILLER_150_1241 vdd vss gf180mcu_fd_sc_mcu7t5v0__fill_1
XFILLER_98_1312 vdd vss gf180mcu_fd_sc_mcu7t5v0__fill_1
XFILLER_232_1596 vdd vss gf180mcu_fd_sc_mcu7t5v0__fill_1
XFILLER_246_451 vdd vss gf180mcu_fd_sc_mcu7t5v0__fillcap_4
XTAP_3010 vdd vss gf180mcu_fd_sc_mcu7t5v0__filltie
XFILLER_234_602 vdd vss gf180mcu_fd_sc_mcu7t5v0__fill_1
XFILLER_46_534 vdd vss gf180mcu_fd_sc_mcu7t5v0__fillcap_64
XTAP_3021 vdd vss gf180mcu_fd_sc_mcu7t5v0__filltie
XTAP_3032 vdd vss gf180mcu_fd_sc_mcu7t5v0__filltie
XFILLER_37_73 vdd vss gf180mcu_fd_sc_mcu7t5v0__fillcap_64
XFILLER_18_247 vdd vss gf180mcu_fd_sc_mcu7t5v0__fill_1
XTAP_3043 vdd vss gf180mcu_fd_sc_mcu7t5v0__filltie
XTAP_3054 vdd vss gf180mcu_fd_sc_mcu7t5v0__filltie
XTAP_2320 vdd vss gf180mcu_fd_sc_mcu7t5v0__filltie
XTAP_3065 vdd vss gf180mcu_fd_sc_mcu7t5v0__filltie
XTAP_2331 vdd vss gf180mcu_fd_sc_mcu7t5v0__filltie
XTAP_3076 vdd vss gf180mcu_fd_sc_mcu7t5v0__filltie
XFILLER_185_1348 vdd vss gf180mcu_fd_sc_mcu7t5v0__fill_1
XTAP_2342 vdd vss gf180mcu_fd_sc_mcu7t5v0__filltie
XTAP_3087 vdd vss gf180mcu_fd_sc_mcu7t5v0__filltie
XTAP_2353 vdd vss gf180mcu_fd_sc_mcu7t5v0__filltie
XTAP_3098 vdd vss gf180mcu_fd_sc_mcu7t5v0__filltie
XTAP_2364 vdd vss gf180mcu_fd_sc_mcu7t5v0__filltie
XFILLER_226_1312 vdd vss gf180mcu_fd_sc_mcu7t5v0__fill_1
XTAP_1630 vdd vss gf180mcu_fd_sc_mcu7t5v0__filltie
XFILLER_2_1095 vdd vss gf180mcu_fd_sc_mcu7t5v0__fillcap_4
XTAP_2375 vdd vss gf180mcu_fd_sc_mcu7t5v0__filltie
XTAP_1641 vdd vss gf180mcu_fd_sc_mcu7t5v0__filltie
XFILLER_42_740 vdd vss gf180mcu_fd_sc_mcu7t5v0__fillcap_4
XTAP_2386 vdd vss gf180mcu_fd_sc_mcu7t5v0__filltie
XFILLER_148_1170 vdd vss gf180mcu_fd_sc_mcu7t5v0__fill_1
XTAP_1652 vdd vss gf180mcu_fd_sc_mcu7t5v0__filltie
XFILLER_57_1064 vdd vss gf180mcu_fd_sc_mcu7t5v0__fill_1
XTAP_2397 vdd vss gf180mcu_fd_sc_mcu7t5v0__filltie
XFILLER_163_1635 vdd vss gf180mcu_fd_sc_mcu7t5v0__fillcap_64
XFILLER_187_712 vdd vss gf180mcu_fd_sc_mcu7t5v0__fillcap_64
XTAP_1663 vdd vss gf180mcu_fd_sc_mcu7t5v0__filltie
XTAP_1674 vdd vss gf180mcu_fd_sc_mcu7t5v0__filltie
XFILLER_159_425 vdd vss gf180mcu_fd_sc_mcu7t5v0__fill_1
XFILLER_214_392 vdd vss gf180mcu_fd_sc_mcu7t5v0__fillcap_64
XTAP_1685 vdd vss gf180mcu_fd_sc_mcu7t5v0__filltie
XTAP_1696 vdd vss gf180mcu_fd_sc_mcu7t5v0__filltie
XFILLER_41_283 vdd vss gf180mcu_fd_sc_mcu7t5v0__fill_1
XFILLER_30_957 vdd vss gf180mcu_fd_sc_mcu7t5v0__fill_1
XFILLER_175_918 vdd vss gf180mcu_fd_sc_mcu7t5v0__fillcap_4
XFILLER_35_1351 vdd vss gf180mcu_fd_sc_mcu7t5v0__fillcap_64
XFILLER_202_598 vdd vss gf180mcu_fd_sc_mcu7t5v0__fillcap_4
XFILLER_146_108 vdd vss gf180mcu_fd_sc_mcu7t5v0__fillcap_64
XFILLER_239_1706 vdd vss gf180mcu_fd_sc_mcu7t5v0__fillcap_32
XFILLER_128_889 vdd vss gf180mcu_fd_sc_mcu7t5v0__fillcap_64
XFILLER_142_314 vdd vss gf180mcu_fd_sc_mcu7t5v0__fillcap_4
XFILLER_192_1308 vdd vss gf180mcu_fd_sc_mcu7t5v0__fillcap_4
XFILLER_100_1663 vdd vss gf180mcu_fd_sc_mcu7t5v0__fillcap_4
XFILLER_48_1734 vdd vss gf180mcu_fd_sc_mcu7t5v0__fillcap_4
XFILLER_64_1024 vdd vss gf180mcu_fd_sc_mcu7t5v0__fillcap_4
XFILLER_111_712 vdd vss gf180mcu_fd_sc_mcu7t5v0__fillcap_64
XFILLER_96_456 vdd vss gf180mcu_fd_sc_mcu7t5v0__fillcap_4
XFILLER_49_350 vdd vss gf180mcu_fd_sc_mcu7t5v0__fillcap_4
XFILLER_204_34 vdd vss gf180mcu_fd_sc_mcu7t5v0__fill_1
XFILLER_65_854 vdd vss gf180mcu_fd_sc_mcu7t5v0__fillcap_64
XFILLER_224_101 vdd vss gf180mcu_fd_sc_mcu7t5v0__fillcap_4
XFILLER_37_567 vdd vss gf180mcu_fd_sc_mcu7t5v0__fill_1
XFILLER_92_673 vdd vss gf180mcu_fd_sc_mcu7t5v0__fill_1
XFILLER_240_605 vdd vss gf180mcu_fd_sc_mcu7t5v0__fillcap_64
XFILLER_75_1131 vdd vss gf180mcu_fd_sc_mcu7t5v0__fillcap_4
XFILLER_206_882 vdd vss gf180mcu_fd_sc_mcu7t5v0__fillcap_4
XFILLER_212_318 vdd vss gf180mcu_fd_sc_mcu7t5v0__fill_1
XFILLER_55_1738 vdd vss gf180mcu_fd_sc_mcu7t5v0__fillcap_16
XFILLER_32_250 vdd vss gf180mcu_fd_sc_mcu7t5v0__fillcap_64
XFILLER_20_456 vdd vss gf180mcu_fd_sc_mcu7t5v0__fillcap_4
XFILLER_203_1131 vdd vss gf180mcu_fd_sc_mcu7t5v0__fillcap_4
XFILLER_165_428 vdd vss gf180mcu_fd_sc_mcu7t5v0__fillcap_64
XFILLER_14_1457 vdd vss gf180mcu_fd_sc_mcu7t5v0__fillcap_64
XFILLER_140_1454 vdd vss gf180mcu_fd_sc_mcu7t5v0__fill_1
XFILLER_192_247 vdd vss gf180mcu_fd_sc_mcu7t5v0__fill_1
XFILLER_88_1525 vdd vss gf180mcu_fd_sc_mcu7t5v0__fill_1
XFILLER_145_141 vdd vss gf180mcu_fd_sc_mcu7t5v0__fill_1
XFILLER_134_815 vdd vss gf180mcu_fd_sc_mcu7t5v0__fill_1
XFILLER_12_1170 vdd vss gf180mcu_fd_sc_mcu7t5v0__fill_1
XFILLER_161_634 vdd vss gf180mcu_fd_sc_mcu7t5v0__fillcap_4
XFILLER_82_1102 vdd vss gf180mcu_fd_sc_mcu7t5v0__fillcap_64
XFILLER_216_1525 vdd vss gf180mcu_fd_sc_mcu7t5v0__fill_1
XFILLER_0_839 vdd vss gf180mcu_fd_sc_mcu7t5v0__fill_1
XFILLER_99_283 vdd vss gf180mcu_fd_sc_mcu7t5v0__fill_1
XFILLER_138_1383 vdd vss gf180mcu_fd_sc_mcu7t5v0__fill_1
XTAP_5907 vdd vss gf180mcu_fd_sc_mcu7t5v0__filltie
XFILLER_47_1277 vdd vss gf180mcu_fd_sc_mcu7t5v0__fill_1
XFILLER_88_957 vdd vss gf180mcu_fd_sc_mcu7t5v0__fill_1
XTAP_5918 vdd vss gf180mcu_fd_sc_mcu7t5v0__filltie
XTAP_5929 vdd vss gf180mcu_fd_sc_mcu7t5v0__filltie
XFILLER_114_34 vdd vss gf180mcu_fd_sc_mcu7t5v0__fill_1
XFILLER_116_1670 vdd vss gf180mcu_fd_sc_mcu7t5v0__fillcap_64
XFILLER_210_1102 vdd vss gf180mcu_fd_sc_mcu7t5v0__fillcap_64
XFILLER_25_1564 vdd vss gf180mcu_fd_sc_mcu7t5v0__fillcap_64
XFILLER_151_1561 vdd vss gf180mcu_fd_sc_mcu7t5v0__fill_1
XFILLER_99_1632 vdd vss gf180mcu_fd_sc_mcu7t5v0__fill_1
XFILLER_216_602 vdd vss gf180mcu_fd_sc_mcu7t5v0__fill_1
XFILLER_28_534 vdd vss gf180mcu_fd_sc_mcu7t5v0__fillcap_64
XFILLER_229_996 vdd vss gf180mcu_fd_sc_mcu7t5v0__fillcap_64
XFILLER_243_421 vdd vss gf180mcu_fd_sc_mcu7t5v0__fillcap_4
XFILLER_245_1209 vdd vss gf180mcu_fd_sc_mcu7t5v0__fillcap_64
XFILLER_82_172 vdd vss gf180mcu_fd_sc_mcu7t5v0__fillcap_4
XFILLER_167_1067 vdd vss gf180mcu_fd_sc_mcu7t5v0__fillcap_64
XFILLER_227_1632 vdd vss gf180mcu_fd_sc_mcu7t5v0__fill_1
XFILLER_24_740 vdd vss gf180mcu_fd_sc_mcu7t5v0__fillcap_4
XFILLER_231_638 vdd vss gf180mcu_fd_sc_mcu7t5v0__fill_1
XFILLER_169_712 vdd vss gf180mcu_fd_sc_mcu7t5v0__fillcap_64
XFILLER_149_1490 vdd vss gf180mcu_fd_sc_mcu7t5v0__fill_1
XFILLER_208_1031 vdd vss gf180mcu_fd_sc_mcu7t5v0__fillcap_64
XFILLER_90_37 vdd vss gf180mcu_fd_sc_mcu7t5v0__fillcap_64
XFILLER_54_1237 vdd vss gf180mcu_fd_sc_mcu7t5v0__fillcap_4
XFILLER_70_389 vdd vss gf180mcu_fd_sc_mcu7t5v0__fill_1
XFILLER_196_531 vdd vss gf180mcu_fd_sc_mcu7t5v0__fill_1
XFILLER_51_570 vdd vss gf180mcu_fd_sc_mcu7t5v0__fillcap_64
XFILLER_23_283 vdd vss gf180mcu_fd_sc_mcu7t5v0__fill_1
XFILLER_157_918 vdd vss gf180mcu_fd_sc_mcu7t5v0__fillcap_4
XFILLER_12_957 vdd vss gf180mcu_fd_sc_mcu7t5v0__fill_1
XFILLER_128_108 vdd vss gf180mcu_fd_sc_mcu7t5v0__fillcap_64
XFILLER_128_2 vdd vss gf180mcu_fd_sc_mcu7t5v0__fillcap_32
XFILLER_104_1095 vdd vss gf180mcu_fd_sc_mcu7t5v0__fillcap_4
XFILLER_124_314 vdd vss gf180mcu_fd_sc_mcu7t5v0__fillcap_4
XFILLER_193_1628 vdd vss gf180mcu_fd_sc_mcu7t5v0__fillcap_4
XFILLER_151_144 vdd vss gf180mcu_fd_sc_mcu7t5v0__fillcap_64
XFILLER_140_818 vdd vss gf180mcu_fd_sc_mcu7t5v0__fillcap_64
XFILLER_156_1450 vdd vss gf180mcu_fd_sc_mcu7t5v0__fillcap_4
XFILLER_65_1344 vdd vss gf180mcu_fd_sc_mcu7t5v0__fillcap_4
XFILLER_239_705 vdd vss gf180mcu_fd_sc_mcu7t5v0__fillcap_4
XFILLER_2_176 vdd vss gf180mcu_fd_sc_mcu7t5v0__fill_1
XFILLER_120_531 vdd vss gf180mcu_fd_sc_mcu7t5v0__fill_1
XFILLER_78_456 vdd vss gf180mcu_fd_sc_mcu7t5v0__fillcap_4
XFILLER_4_1102 vdd vss gf180mcu_fd_sc_mcu7t5v0__fillcap_64
XFILLER_171_73 vdd vss gf180mcu_fd_sc_mcu7t5v0__fillcap_64
XFILLER_47_854 vdd vss gf180mcu_fd_sc_mcu7t5v0__fillcap_64
XFILLER_0_13 vdd vss gf180mcu_fd_sc_mcu7t5v0__fillcap_16
XFILLER_235_922 vdd vss gf180mcu_fd_sc_mcu7t5v0__fill_1
XFILLER_206_101 vdd vss gf180mcu_fd_sc_mcu7t5v0__fillcap_4
XFILLER_130_1667 vdd vss gf180mcu_fd_sc_mcu7t5v0__fill_1
XFILLER_19_567 vdd vss gf180mcu_fd_sc_mcu7t5v0__fill_1
XFILLER_78_1738 vdd vss gf180mcu_fd_sc_mcu7t5v0__fill_1
XFILLER_74_673 vdd vss gf180mcu_fd_sc_mcu7t5v0__fill_1
XFILLER_94_1028 vdd vss gf180mcu_fd_sc_mcu7t5v0__fill_1
XFILLER_222_605 vdd vss gf180mcu_fd_sc_mcu7t5v0__fillcap_64
XTAP_2150 vdd vss gf180mcu_fd_sc_mcu7t5v0__filltie
XTAP_2161 vdd vss gf180mcu_fd_sc_mcu7t5v0__filltie
XTAP_2172 vdd vss gf180mcu_fd_sc_mcu7t5v0__filltie
XTAP_2183 vdd vss gf180mcu_fd_sc_mcu7t5v0__filltie
XTAP_2194 vdd vss gf180mcu_fd_sc_mcu7t5v0__filltie
XFILLER_221_137 vdd vss gf180mcu_fd_sc_mcu7t5v0__fillcap_4
XTAP_1460 vdd vss gf180mcu_fd_sc_mcu7t5v0__filltie
XFILLER_72_1315 vdd vss gf180mcu_fd_sc_mcu7t5v0__fillcap_64
XFILLER_14_250 vdd vss gf180mcu_fd_sc_mcu7t5v0__fillcap_64
XTAP_1471 vdd vss gf180mcu_fd_sc_mcu7t5v0__filltie
XFILLER_206_1738 vdd vss gf180mcu_fd_sc_mcu7t5v0__fill_1
XTAP_1482 vdd vss gf180mcu_fd_sc_mcu7t5v0__filltie
XTAP_1493 vdd vss gf180mcu_fd_sc_mcu7t5v0__filltie
XFILLER_128_1596 vdd vss gf180mcu_fd_sc_mcu7t5v0__fill_1
XFILLER_222_1028 vdd vss gf180mcu_fd_sc_mcu7t5v0__fill_1
XFILLER_147_428 vdd vss gf180mcu_fd_sc_mcu7t5v0__fillcap_64
XFILLER_198_1528 vdd vss gf180mcu_fd_sc_mcu7t5v0__fillcap_64
XFILLER_174_247 vdd vss gf180mcu_fd_sc_mcu7t5v0__fill_1
XFILLER_200_1315 vdd vss gf180mcu_fd_sc_mcu7t5v0__fillcap_64
XFILLER_116_815 vdd vss gf180mcu_fd_sc_mcu7t5v0__fill_1
XFILLER_122_1173 vdd vss gf180mcu_fd_sc_mcu7t5v0__fillcap_64
XFILLER_127_141 vdd vss gf180mcu_fd_sc_mcu7t5v0__fill_1
XFILLER_31_1067 vdd vss gf180mcu_fd_sc_mcu7t5v0__fillcap_64
XFILLER_102_1758 vdd vss gf180mcu_fd_sc_mcu7t5v0__fill_1
XFILLER_196_1241 vdd vss gf180mcu_fd_sc_mcu7t5v0__fill_1
XFILLER_6_460 vdd vss gf180mcu_fd_sc_mcu7t5v0__fill_1
XFILLER_13_1490 vdd vss gf180mcu_fd_sc_mcu7t5v0__fill_1
XFILLER_143_634 vdd vss gf180mcu_fd_sc_mcu7t5v0__fillcap_4
XFILLER_43_2 vdd vss gf180mcu_fd_sc_mcu7t5v0__fillcap_64
XFILLER_83_1422 vdd vss gf180mcu_fd_sc_mcu7t5v0__fillcap_64
XFILLER_233_1135 vdd vss gf180mcu_fd_sc_mcu7t5v0__fill_1
XFILLER_229_215 vdd vss gf180mcu_fd_sc_mcu7t5v0__fillcap_64
XFILLER_97_776 vdd vss gf180mcu_fd_sc_mcu7t5v0__fillcap_4
XFILLER_215_66 vdd vss gf180mcu_fd_sc_mcu7t5v0__fillcap_4
XFILLER_211_1422 vdd vss gf180mcu_fd_sc_mcu7t5v0__fillcap_64
XFILLER_133_1280 vdd vss gf180mcu_fd_sc_mcu7t5v0__fillcap_64
XFILLER_225_421 vdd vss gf180mcu_fd_sc_mcu7t5v0__fillcap_4
XFILLER_246_1507 vdd vss gf180mcu_fd_sc_mcu7t5v0__fillcap_32
XFILLER_20_1450 vdd vss gf180mcu_fd_sc_mcu7t5v0__fillcap_4
XFILLER_93_993 vdd vss gf180mcu_fd_sc_mcu7t5v0__fill_1
XFILLER_64_172 vdd vss gf180mcu_fd_sc_mcu7t5v0__fillcap_4
XFILLER_241_925 vdd vss gf180mcu_fd_sc_mcu7t5v0__fillcap_64
XFILLER_198_818 vdd vss gf180mcu_fd_sc_mcu7t5v0__fillcap_64
XFILLER_213_638 vdd vss gf180mcu_fd_sc_mcu7t5v0__fill_1
XFILLER_0_1577 vdd vss gf180mcu_fd_sc_mcu7t5v0__fillcap_16
XFILLER_80_676 vdd vss gf180mcu_fd_sc_mcu7t5v0__fillcap_64
XFILLER_209_1351 vdd vss gf180mcu_fd_sc_mcu7t5v0__fillcap_64
XFILLER_52_389 vdd vss gf180mcu_fd_sc_mcu7t5v0__fill_1
XFILLER_33_570 vdd vss gf180mcu_fd_sc_mcu7t5v0__fillcap_64
XFILLER_146_1663 vdd vss gf180mcu_fd_sc_mcu7t5v0__fillcap_4
XFILLER_178_531 vdd vss gf180mcu_fd_sc_mcu7t5v0__fill_1
XFILLER_55_1557 vdd vss gf180mcu_fd_sc_mcu7t5v0__fillcap_4
XFILLER_139_918 vdd vss gf180mcu_fd_sc_mcu7t5v0__fillcap_4
XFILLER_21_776 vdd vss gf180mcu_fd_sc_mcu7t5v0__fillcap_4
XFILLER_101_1202 vdd vss gf180mcu_fd_sc_mcu7t5v0__fillcap_4
XFILLER_193_567 vdd vss gf180mcu_fd_sc_mcu7t5v0__fill_1
XFILLER_238_1024 vdd vss gf180mcu_fd_sc_mcu7t5v0__fillcap_4
XFILLER_106_314 vdd vss gf180mcu_fd_sc_mcu7t5v0__fillcap_4
XFILLER_122_818 vdd vss gf180mcu_fd_sc_mcu7t5v0__fillcap_64
XFILLER_133_144 vdd vss gf180mcu_fd_sc_mcu7t5v0__fillcap_64
XTAP_6405 vdd vss gf180mcu_fd_sc_mcu7t5v0__filltie
XTAP_6416 vdd vss gf180mcu_fd_sc_mcu7t5v0__filltie
XTAP_6427 vdd vss gf180mcu_fd_sc_mcu7t5v0__filltie