*SPEF "ieee 1481-1999"
*DESIGN "tiny_user_project"
*DATE "11:11:11 Fri 11 11, 1111"
*VENDOR "OpenRCX"
*PROGRAM "Parallel Extraction"
*VERSION "1.0"
*DESIGN_FLOW "NAME_SCOPE LOCAL" "PIN_CAP NONE"
*DIVIDER /
*DELIMITER :
*BUS_DELIMITER []
*T_UNIT 1 NS
*C_UNIT 1 PF
*R_UNIT 1 OHM
*L_UNIT 1 HENRY

*NAME_MAP
*1 io_in[0]
*2 io_in[10]
*3 io_in[11]
*4 io_in[12]
*5 io_in[13]
*6 io_in[14]
*7 io_in[15]
*8 io_in[16]
*9 io_in[17]
*10 io_in[18]
*11 io_in[19]
*12 io_in[1]
*13 io_in[20]
*14 io_in[21]
*15 io_in[22]
*16 io_in[23]
*17 io_in[24]
*18 io_in[25]
*19 io_in[26]
*20 io_in[27]
*21 io_in[28]
*22 io_in[29]
*23 io_in[2]
*24 io_in[30]
*25 io_in[31]
*26 io_in[32]
*27 io_in[33]
*28 io_in[34]
*29 io_in[35]
*30 io_in[36]
*31 io_in[37]
*32 io_in[3]
*33 io_in[4]
*34 io_in[5]
*35 io_in[6]
*36 io_in[7]
*37 io_in[8]
*38 io_in[9]
*39 net166
*40 net176
*41 net177
*42 net178
*43 net179
*44 net180
*45 net181
*46 net182
*47 net183
*48 net184
*49 net185
*50 net167
*51 net186
*52 net187
*53 net188
*54 net189
*55 net190
*56 net191
*57 net192
*58 net193
*59 net194
*60 net195
*61 net168
*62 net196
*63 net197
*64 net198
*65 net199
*66 net200
*67 net201
*68 net202
*69 net203
*70 net169
*71 net170
*72 net171
*73 net172
*74 net173
*75 net174
*76 net175
*77 net128
*78 net138
*79 net139
*80 net140
*81 net141
*82 net142
*83 net143
*84 net144
*85 net145
*86 net146
*87 net147
*88 net129
*89 net148
*90 net149
*91 net150
*92 net151
*93 net152
*94 net153
*95 net154
*96 net155
*97 net156
*98 net157
*99 net130
*100 net158
*101 net159
*102 net160
*103 net161
*104 net162
*105 net163
*106 net164
*107 net165
*108 net131
*109 net132
*110 net133
*111 net134
*112 net135
*113 net136
*114 net137
*115 net125
*116 net126
*117 net127
*118 la_data_in[0]
*119 la_data_in[100]
*120 la_data_in[101]
*121 la_data_in[102]
*122 la_data_in[103]
*123 la_data_in[104]
*124 la_data_in[105]
*125 la_data_in[106]
*126 la_data_in[107]
*127 la_data_in[108]
*128 la_data_in[109]
*129 la_data_in[10]
*130 la_data_in[110]
*131 la_data_in[111]
*132 la_data_in[112]
*133 la_data_in[113]
*134 la_data_in[114]
*135 la_data_in[115]
*136 la_data_in[116]
*137 la_data_in[117]
*138 la_data_in[118]
*139 la_data_in[119]
*140 la_data_in[11]
*141 la_data_in[120]
*142 la_data_in[121]
*143 la_data_in[122]
*144 la_data_in[123]
*145 la_data_in[124]
*146 la_data_in[125]
*147 la_data_in[126]
*148 la_data_in[127]
*149 la_data_in[12]
*150 la_data_in[13]
*151 la_data_in[14]
*152 la_data_in[15]
*153 la_data_in[16]
*154 la_data_in[17]
*155 la_data_in[18]
*156 la_data_in[19]
*157 la_data_in[1]
*158 la_data_in[20]
*159 la_data_in[21]
*160 la_data_in[22]
*161 la_data_in[23]
*162 la_data_in[24]
*163 la_data_in[25]
*164 la_data_in[26]
*165 la_data_in[27]
*166 la_data_in[28]
*167 la_data_in[29]
*168 la_data_in[2]
*169 la_data_in[30]
*170 la_data_in[31]
*171 la_data_in[32]
*172 la_data_in[33]
*173 la_data_in[34]
*174 la_data_in[35]
*175 la_data_in[36]
*176 la_data_in[37]
*177 la_data_in[38]
*178 la_data_in[39]
*179 la_data_in[3]
*180 la_data_in[40]
*181 la_data_in[41]
*182 la_data_in[42]
*183 la_data_in[43]
*184 la_data_in[44]
*185 la_data_in[45]
*186 la_data_in[46]
*187 la_data_in[47]
*188 la_data_in[48]
*189 la_data_in[49]
*190 la_data_in[4]
*191 la_data_in[50]
*192 la_data_in[51]
*193 la_data_in[52]
*194 la_data_in[53]
*195 la_data_in[54]
*196 la_data_in[55]
*197 la_data_in[56]
*198 la_data_in[57]
*199 la_data_in[58]
*200 la_data_in[59]
*201 la_data_in[5]
*202 la_data_in[60]
*203 la_data_in[61]
*204 la_data_in[62]
*205 la_data_in[63]
*206 la_data_in[64]
*207 la_data_in[65]
*208 la_data_in[66]
*209 la_data_in[67]
*210 la_data_in[68]
*211 la_data_in[69]
*212 la_data_in[6]
*213 la_data_in[70]
*214 la_data_in[71]
*215 la_data_in[72]
*216 la_data_in[73]
*217 la_data_in[74]
*218 la_data_in[75]
*219 la_data_in[76]
*220 la_data_in[77]
*221 la_data_in[78]
*222 la_data_in[79]
*223 la_data_in[7]
*224 la_data_in[80]
*225 la_data_in[81]
*226 la_data_in[82]
*227 la_data_in[83]
*228 la_data_in[84]
*229 la_data_in[85]
*230 la_data_in[86]
*231 la_data_in[87]
*232 la_data_in[88]
*233 la_data_in[89]
*234 la_data_in[8]
*235 la_data_in[90]
*236 la_data_in[91]
*237 la_data_in[92]
*238 la_data_in[93]
*239 la_data_in[94]
*240 la_data_in[95]
*241 la_data_in[96]
*242 la_data_in[97]
*243 la_data_in[98]
*244 la_data_in[99]
*245 la_data_in[9]
*246 net237
*247 net97
*248 net98
*249 net99
*250 net100
*251 net101
*252 net102
*253 net103
*254 net104
*255 net105
*256 net106
*257 net7
*258 net107
*259 net108
*260 net109
*261 net110
*262 net111
*263 net112
*264 net113
*265 net114
*266 net115
*267 net116
*268 net8
*269 net117
*270 net118
*271 net119
*272 net120
*273 net121
*274 net122
*275 net123
*276 net124
*277 net9
*278 net10
*279 net11
*280 net12
*281 net13
*282 net14
*283 net15
*284 net16
*285 net238
*286 net17
*287 net18
*288 net19
*289 net20
*290 net21
*291 net22
*292 net23
*293 net24
*294 net25
*295 net26
*296 net239
*297 net27
*298 net28
*299 net29
*300 net30
*301 net31
*302 net32
*303 net33
*304 net34
*305 net35
*306 net36
*307 net240
*308 net37
*309 net38
*310 net39
*311 net40
*312 net41
*313 net42
*314 net43
*315 net44
*316 net45
*317 net46
*318 net1
*319 net47
*320 net48
*321 net49
*322 net50
*323 net51
*324 net52
*325 net53
*326 net54
*327 net55
*328 net56
*329 net2
*330 net57
*331 net58
*332 net59
*333 net60
*334 net61
*335 net62
*336 net63
*337 net64
*338 net65
*339 net66
*340 net3
*341 net67
*342 net68
*343 net69
*344 net70
*345 net71
*346 net72
*347 net73
*348 net74
*349 net75
*350 net76
*351 net4
*352 net77
*353 net78
*354 net79
*355 net80
*356 net81
*357 net82
*358 net83
*359 net84
*360 net85
*361 net86
*362 net5
*363 net87
*364 net88
*365 net89
*366 net90
*367 net91
*368 net92
*369 net93
*370 net94
*371 net95
*372 net96
*373 net6
*374 la_oenb[0]
*375 la_oenb[100]
*376 la_oenb[101]
*377 la_oenb[102]
*378 la_oenb[103]
*379 la_oenb[104]
*380 la_oenb[105]
*381 la_oenb[106]
*382 la_oenb[107]
*383 la_oenb[108]
*384 la_oenb[109]
*385 la_oenb[10]
*386 la_oenb[110]
*387 la_oenb[111]
*388 la_oenb[112]
*389 la_oenb[113]
*390 la_oenb[114]
*391 la_oenb[115]
*392 la_oenb[116]
*393 la_oenb[117]
*394 la_oenb[118]
*395 la_oenb[119]
*396 la_oenb[11]
*397 la_oenb[120]
*398 la_oenb[121]
*399 la_oenb[122]
*400 la_oenb[123]
*401 la_oenb[124]
*402 la_oenb[125]
*403 la_oenb[126]
*404 la_oenb[127]
*405 la_oenb[12]
*406 la_oenb[13]
*407 la_oenb[14]
*408 la_oenb[15]
*409 la_oenb[16]
*410 la_oenb[17]
*411 la_oenb[18]
*412 la_oenb[19]
*413 la_oenb[1]
*414 la_oenb[20]
*415 la_oenb[21]
*416 la_oenb[22]
*417 la_oenb[23]
*418 la_oenb[24]
*419 la_oenb[25]
*420 la_oenb[26]
*421 la_oenb[27]
*422 la_oenb[28]
*423 la_oenb[29]
*424 la_oenb[2]
*425 la_oenb[30]
*426 la_oenb[31]
*427 la_oenb[32]
*428 la_oenb[33]
*429 la_oenb[34]
*430 la_oenb[35]
*431 la_oenb[36]
*432 la_oenb[37]
*433 la_oenb[38]
*434 la_oenb[39]
*435 la_oenb[3]
*436 la_oenb[40]
*437 la_oenb[41]
*438 la_oenb[42]
*439 la_oenb[43]
*440 la_oenb[44]
*441 la_oenb[45]
*442 la_oenb[46]
*443 la_oenb[47]
*444 la_oenb[48]
*445 la_oenb[49]
*446 la_oenb[4]
*447 la_oenb[50]
*448 la_oenb[51]
*449 la_oenb[52]
*450 la_oenb[53]
*451 la_oenb[54]
*452 la_oenb[55]
*453 la_oenb[56]
*454 la_oenb[57]
*455 la_oenb[58]
*456 la_oenb[59]
*457 la_oenb[5]
*458 la_oenb[60]
*459 la_oenb[61]
*460 la_oenb[62]
*461 la_oenb[63]
*462 la_oenb[64]
*463 la_oenb[65]
*464 la_oenb[66]
*465 la_oenb[67]
*466 la_oenb[68]
*467 la_oenb[69]
*468 la_oenb[6]
*469 la_oenb[70]
*470 la_oenb[71]
*471 la_oenb[72]
*472 la_oenb[73]
*473 la_oenb[74]
*474 la_oenb[75]
*475 la_oenb[76]
*476 la_oenb[77]
*477 la_oenb[78]
*478 la_oenb[79]
*479 la_oenb[7]
*480 la_oenb[80]
*481 la_oenb[81]
*482 la_oenb[82]
*483 la_oenb[83]
*484 la_oenb[84]
*485 la_oenb[85]
*486 la_oenb[86]
*487 la_oenb[87]
*488 la_oenb[88]
*489 la_oenb[89]
*490 la_oenb[8]
*491 la_oenb[90]
*492 la_oenb[91]
*493 la_oenb[92]
*494 la_oenb[93]
*495 la_oenb[94]
*496 la_oenb[95]
*497 la_oenb[96]
*498 la_oenb[97]
*499 la_oenb[98]
*500 la_oenb[99]
*501 la_oenb[9]
*504 wb_clk_i
*505 wb_rst_i
*506 net204
*507 wbs_adr_i[0]
*508 wbs_adr_i[10]
*509 wbs_adr_i[11]
*510 wbs_adr_i[12]
*511 wbs_adr_i[13]
*512 wbs_adr_i[14]
*513 wbs_adr_i[15]
*514 wbs_adr_i[16]
*515 wbs_adr_i[17]
*516 wbs_adr_i[18]
*517 wbs_adr_i[19]
*518 wbs_adr_i[1]
*519 wbs_adr_i[20]
*520 wbs_adr_i[21]
*521 wbs_adr_i[22]
*522 wbs_adr_i[23]
*523 wbs_adr_i[24]
*524 wbs_adr_i[25]
*525 wbs_adr_i[26]
*526 wbs_adr_i[27]
*527 wbs_adr_i[28]
*528 wbs_adr_i[29]
*529 wbs_adr_i[2]
*530 wbs_adr_i[30]
*531 wbs_adr_i[31]
*532 wbs_adr_i[3]
*533 wbs_adr_i[4]
*534 wbs_adr_i[5]
*535 wbs_adr_i[6]
*536 wbs_adr_i[7]
*537 wbs_adr_i[8]
*538 wbs_adr_i[9]
*539 wbs_cyc_i
*540 wbs_dat_i[0]
*541 wbs_dat_i[10]
*542 wbs_dat_i[11]
*543 wbs_dat_i[12]
*544 wbs_dat_i[13]
*545 wbs_dat_i[14]
*546 wbs_dat_i[15]
*547 wbs_dat_i[16]
*548 wbs_dat_i[17]
*549 wbs_dat_i[18]
*550 wbs_dat_i[19]
*551 wbs_dat_i[1]
*552 wbs_dat_i[20]
*553 wbs_dat_i[21]
*554 wbs_dat_i[22]
*555 wbs_dat_i[23]
*556 wbs_dat_i[24]
*557 wbs_dat_i[25]
*558 wbs_dat_i[26]
*559 wbs_dat_i[27]
*560 wbs_dat_i[28]
*561 wbs_dat_i[29]
*562 wbs_dat_i[2]
*563 wbs_dat_i[30]
*564 wbs_dat_i[31]
*565 wbs_dat_i[3]
*566 wbs_dat_i[4]
*567 wbs_dat_i[5]
*568 wbs_dat_i[6]
*569 wbs_dat_i[7]
*570 wbs_dat_i[8]
*571 wbs_dat_i[9]
*572 net205
*573 net215
*574 net216
*575 net217
*576 net218
*577 net219
*578 net220
*579 net221
*580 net222
*581 net223
*582 net224
*583 net206
*584 net225
*585 net226
*586 net227
*587 net228
*588 net229
*589 net230
*590 net231
*591 net232
*592 net233
*593 net234
*594 net207
*595 net235
*596 net236
*597 net208
*598 net209
*599 net210
*600 net211
*601 net212
*602 net213
*603 net214
*604 wbs_sel_i[0]
*605 wbs_sel_i[1]
*606 wbs_sel_i[2]
*607 wbs_sel_i[3]
*608 wbs_stb_i
*609 wbs_we_i
*610 FILLER_0_1001
*611 FILLER_0_1013
*612 FILLER_0_1017
*613 FILLER_0_1025
*614 FILLER_0_104
*615 FILLER_0_1041
*616 FILLER_0_1049
*617 FILLER_0_1052
*618 FILLER_0_107
*619 FILLER_0_1084
*620 FILLER_0_1087
*621 FILLER_0_1092
*622 FILLER_0_1100
*623 FILLER_0_1104
*624 FILLER_0_1109
*625 FILLER_0_1117
*626 FILLER_0_1119
*627 FILLER_0_1122
*628 FILLER_0_1126
*629 FILLER_0_1128
*630 FILLER_0_1133
*631 FILLER_0_1149
*632 FILLER_0_1153
*633 FILLER_0_1157
*634 FILLER_0_1169
*635 FILLER_0_1185
*636 FILLER_0_1189
*637 FILLER_0_119
*638 FILLER_0_1192
*639 FILLER_0_1200
*640 FILLER_0_1205
*641 FILLER_0_1217
*642 FILLER_0_1227
*643 FILLER_0_1232
*644 FILLER_0_1248
*645 FILLER_0_1256
*646 FILLER_0_1262
*647 FILLER_0_1267
*648 FILLER_0_1283
*649 FILLER_0_1291
*650 FILLER_0_1297
*651 FILLER_0_13
*652 FILLER_0_131
*653 FILLER_0_1313
*654 FILLER_0_1319
*655 FILLER_0_1327
*656 FILLER_0_1329
*657 FILLER_0_1332
*658 FILLER_0_1336
*659 FILLER_0_1338
*660 FILLER_0_1343
*661 FILLER_0_1359
*662 FILLER_0_1363
*663 FILLER_0_1367
*664 FILLER_0_1372
*665 FILLER_0_1380
*666 FILLER_0_1384
*667 FILLER_0_1386
*668 FILLER_0_139
*669 FILLER_0_1391
*670 FILLER_0_1399
*671 FILLER_0_1402
*672 FILLER_0_1407
*673 FILLER_0_142
*674 FILLER_0_1423
*675 FILLER_0_1431
*676 FILLER_0_1437
*677 FILLER_0_1442
*678 FILLER_0_1446
*679 FILLER_0_1451
*680 FILLER_0_1467
*681 FILLER_0_1469
*682 FILLER_0_147
*683 FILLER_0_1472
*684 FILLER_0_1488
*685 FILLER_0_1492
*686 FILLER_0_1494
*687 FILLER_0_1499
*688 FILLER_0_1503
*689 FILLER_0_1507
*690 FILLER_0_1512
*691 FILLER_0_1528
*692 FILLER_0_1536
*693 FILLER_0_1542
*694 FILLER_0_1574
*695 FILLER_0_1577
*696 FILLER_0_1593
*697 FILLER_0_1601
*698 FILLER_0_1607
*699 FILLER_0_1609
*700 FILLER_0_1612
*701 FILLER_0_1617
*702 FILLER_0_1625
*703 FILLER_0_163
*704 FILLER_0_1641
*705 FILLER_0_1647
*706 FILLER_0_1679
*707 FILLER_0_1682
*708 FILLER_0_1687
*709 FILLER_0_1691
*710 FILLER_0_1697
*711 FILLER_0_171
*712 FILLER_0_1713
*713 FILLER_0_1717
*714 FILLER_0_1722
*715 FILLER_0_1738
*716 FILLER_0_1742
*717 FILLER_0_1744
*718 FILLER_0_1749
*719 FILLER_0_1752
*720 FILLER_0_1757
*721 FILLER_0_177
*722 FILLER_0_193
*723 FILLER_0_197
*724 FILLER_0_2
*725 FILLER_0_203
*726 FILLER_0_207
*727 FILLER_0_209
*728 FILLER_0_212
*729 FILLER_0_220
*730 FILLER_0_222
*731 FILLER_0_227
*732 FILLER_0_239
*733 FILLER_0_243
*734 FILLER_0_247
*735 FILLER_0_255
*736 FILLER_0_263
*737 FILLER_0_275
*738 FILLER_0_279
*739 FILLER_0_282
*740 FILLER_0_29
*741 FILLER_0_314
*742 FILLER_0_317
*743 FILLER_0_33
*744 FILLER_0_349
*745 FILLER_0_352
*746 FILLER_0_368
*747 FILLER_0_37
*748 FILLER_0_372
*749 FILLER_0_377
*750 FILLER_0_387
*751 FILLER_0_392
*752 FILLER_0_408
*753 FILLER_0_413
*754 FILLER_0_417
*755 FILLER_0_419
*756 FILLER_0_42
*757 FILLER_0_422
*758 FILLER_0_454
*759 FILLER_0_457
*760 FILLER_0_465
*761 FILLER_0_473
*762 FILLER_0_489
*763 FILLER_0_492
*764 FILLER_0_524
*765 FILLER_0_527
*766 FILLER_0_535
*767 FILLER_0_539
*768 FILLER_0_545
*769 FILLER_0_557
*770 FILLER_0_559
*771 FILLER_0_562
*772 FILLER_0_564
*773 FILLER_0_569
*774 FILLER_0_58
*775 FILLER_0_585
*776 FILLER_0_593
*777 FILLER_0_597
*778 FILLER_0_629
*779 FILLER_0_632
*780 FILLER_0_640
*781 FILLER_0_642
*782 FILLER_0_647
*783 FILLER_0_659
*784 FILLER_0_66
*785 FILLER_0_663
*786 FILLER_0_667
*787 FILLER_0_672
*788 FILLER_0_676
*789 FILLER_0_678
*790 FILLER_0_683
*791 FILLER_0_699
*792 FILLER_0_7
*793 FILLER_0_702
*794 FILLER_0_72
*795 FILLER_0_734
*796 FILLER_0_737
*797 FILLER_0_769
*798 FILLER_0_772
*799 FILLER_0_780
*800 FILLER_0_784
*801 FILLER_0_786
*802 FILLER_0_791
*803 FILLER_0_803
*804 FILLER_0_807
*805 FILLER_0_815
*806 FILLER_0_827
*807 FILLER_0_835
*808 FILLER_0_839
*809 FILLER_0_842
*810 FILLER_0_846
*811 FILLER_0_851
*812 FILLER_0_867
*813 FILLER_0_877
*814 FILLER_0_881
*815 FILLER_0_887
*816 FILLER_0_899
*817 FILLER_0_907
*818 FILLER_0_909
*819 FILLER_0_912
*820 FILLER_0_928
*821 FILLER_0_930
*822 FILLER_0_935
*823 FILLER_0_943
*824 FILLER_0_947
*825 FILLER_0_955
*826 FILLER_0_959
*827 FILLER_0_965
*828 FILLER_0_977
*829 FILLER_0_979
*830 FILLER_0_982
*831 FILLER_0_984
*832 FILLER_0_989
*833 FILLER_100_101
*834 FILLER_100_1024
*835 FILLER_100_1028
*836 FILLER_100_1031
*837 FILLER_100_105
*838 FILLER_100_108
*839 FILLER_100_1095
*840 FILLER_100_1099
*841 FILLER_100_1102
*842 FILLER_100_1166
*843 FILLER_100_1170
*844 FILLER_100_1173
*845 FILLER_100_1237
*846 FILLER_100_1241
*847 FILLER_100_1244
*848 FILLER_100_1308
*849 FILLER_100_1312
*850 FILLER_100_1315
*851 FILLER_100_1379
*852 FILLER_100_1383
*853 FILLER_100_1386
*854 FILLER_100_1450
*855 FILLER_100_1454
*856 FILLER_100_1457
*857 FILLER_100_1521
*858 FILLER_100_1525
*859 FILLER_100_1528
*860 FILLER_100_1592
*861 FILLER_100_1596
*862 FILLER_100_1599
*863 FILLER_100_1663
*864 FILLER_100_1667
*865 FILLER_100_1670
*866 FILLER_100_172
*867 FILLER_100_1734
*868 FILLER_100_1738
*869 FILLER_100_1741
*870 FILLER_100_1757
*871 FILLER_100_176
*872 FILLER_100_179
*873 FILLER_100_2
*874 FILLER_100_243
*875 FILLER_100_247
*876 FILLER_100_250
*877 FILLER_100_314
*878 FILLER_100_318
*879 FILLER_100_321
*880 FILLER_100_34
*881 FILLER_100_37
*882 FILLER_100_385
*883 FILLER_100_389
*884 FILLER_100_392
*885 FILLER_100_456
*886 FILLER_100_460
*887 FILLER_100_463
*888 FILLER_100_527
*889 FILLER_100_531
*890 FILLER_100_534
*891 FILLER_100_598
*892 FILLER_100_602
*893 FILLER_100_605
*894 FILLER_100_669
*895 FILLER_100_673
*896 FILLER_100_676
*897 FILLER_100_740
*898 FILLER_100_744
*899 FILLER_100_747
*900 FILLER_100_811
*901 FILLER_100_815
*902 FILLER_100_818
*903 FILLER_100_882
*904 FILLER_100_886
*905 FILLER_100_889
*906 FILLER_100_953
*907 FILLER_100_957
*908 FILLER_100_960
*909 FILLER_101_1060
*910 FILLER_101_1064
*911 FILLER_101_1067
*912 FILLER_101_1131
*913 FILLER_101_1135
*914 FILLER_101_1138
*915 FILLER_101_1202
*916 FILLER_101_1206
*917 FILLER_101_1209
*918 FILLER_101_1273
*919 FILLER_101_1277
*920 FILLER_101_1280
*921 FILLER_101_1344
*922 FILLER_101_1348
*923 FILLER_101_1351
*924 FILLER_101_137
*925 FILLER_101_141
*926 FILLER_101_1415
*927 FILLER_101_1419
*928 FILLER_101_1422
*929 FILLER_101_144
*930 FILLER_101_1486
*931 FILLER_101_1490
*932 FILLER_101_1493
*933 FILLER_101_1557
*934 FILLER_101_1561
*935 FILLER_101_1564
*936 FILLER_101_1628
*937 FILLER_101_1632
*938 FILLER_101_1635
*939 FILLER_101_1699
*940 FILLER_101_1703
*941 FILLER_101_1706
*942 FILLER_101_1738
*943 FILLER_101_1758
*944 FILLER_101_2
*945 FILLER_101_208
*946 FILLER_101_212
*947 FILLER_101_215
*948 FILLER_101_279
*949 FILLER_101_283
*950 FILLER_101_286
*951 FILLER_101_350
*952 FILLER_101_354
*953 FILLER_101_357
*954 FILLER_101_421
*955 FILLER_101_425
*956 FILLER_101_428
*957 FILLER_101_492
*958 FILLER_101_496
*959 FILLER_101_499
*960 FILLER_101_563
*961 FILLER_101_567
*962 FILLER_101_570
*963 FILLER_101_634
*964 FILLER_101_638
*965 FILLER_101_641
*966 FILLER_101_66
*967 FILLER_101_70
*968 FILLER_101_705
*969 FILLER_101_709
*970 FILLER_101_712
*971 FILLER_101_73
*972 FILLER_101_776
*973 FILLER_101_780
*974 FILLER_101_783
*975 FILLER_101_847
*976 FILLER_101_851
*977 FILLER_101_854
*978 FILLER_101_918
*979 FILLER_101_922
*980 FILLER_101_925
*981 FILLER_101_989
*982 FILLER_101_993
*983 FILLER_101_996
*984 FILLER_102_101
*985 FILLER_102_1024
*986 FILLER_102_1028
*987 FILLER_102_1031
*988 FILLER_102_105
*989 FILLER_102_108
*990 FILLER_102_1095
*991 FILLER_102_1099
*992 FILLER_102_1102
*993 FILLER_102_1166
*994 FILLER_102_1170
*995 FILLER_102_1173
*996 FILLER_102_1237
*997 FILLER_102_1241
*998 FILLER_102_1244
*999 FILLER_102_1308
*1000 FILLER_102_1312
*1001 FILLER_102_1315
*1002 FILLER_102_1379
*1003 FILLER_102_1383
*1004 FILLER_102_1386
*1005 FILLER_102_1450
*1006 FILLER_102_1454
*1007 FILLER_102_1457
*1008 FILLER_102_1521
*1009 FILLER_102_1525
*1010 FILLER_102_1528
*1011 FILLER_102_1592
*1012 FILLER_102_1596
*1013 FILLER_102_1599
*1014 FILLER_102_1663
*1015 FILLER_102_1667
*1016 FILLER_102_1670
*1017 FILLER_102_172
*1018 FILLER_102_1734
*1019 FILLER_102_1738
*1020 FILLER_102_1741
*1021 FILLER_102_1749
*1022 FILLER_102_1753
*1023 FILLER_102_1758
*1024 FILLER_102_176
*1025 FILLER_102_179
*1026 FILLER_102_2
*1027 FILLER_102_243
*1028 FILLER_102_247
*1029 FILLER_102_250
*1030 FILLER_102_314
*1031 FILLER_102_318
*1032 FILLER_102_321
*1033 FILLER_102_34
*1034 FILLER_102_37
*1035 FILLER_102_385
*1036 FILLER_102_389
*1037 FILLER_102_392
*1038 FILLER_102_456
*1039 FILLER_102_460
*1040 FILLER_102_463
*1041 FILLER_102_527
*1042 FILLER_102_531
*1043 FILLER_102_534
*1044 FILLER_102_598
*1045 FILLER_102_602
*1046 FILLER_102_605
*1047 FILLER_102_669
*1048 FILLER_102_673
*1049 FILLER_102_676
*1050 FILLER_102_740
*1051 FILLER_102_744
*1052 FILLER_102_747
*1053 FILLER_102_811
*1054 FILLER_102_815
*1055 FILLER_102_818
*1056 FILLER_102_882
*1057 FILLER_102_886
*1058 FILLER_102_889
*1059 FILLER_102_953
*1060 FILLER_102_957
*1061 FILLER_102_960
*1062 FILLER_103_1060
*1063 FILLER_103_1064
*1064 FILLER_103_1067
*1065 FILLER_103_1131
*1066 FILLER_103_1135
*1067 FILLER_103_1138
*1068 FILLER_103_1202
*1069 FILLER_103_1206
*1070 FILLER_103_1209
*1071 FILLER_103_1273
*1072 FILLER_103_1277
*1073 FILLER_103_1280
*1074 FILLER_103_1344
*1075 FILLER_103_1348
*1076 FILLER_103_1351
*1077 FILLER_103_137
*1078 FILLER_103_141
*1079 FILLER_103_1415
*1080 FILLER_103_1419
*1081 FILLER_103_1422
*1082 FILLER_103_144
*1083 FILLER_103_1486
*1084 FILLER_103_1490
*1085 FILLER_103_1493
*1086 FILLER_103_1557
*1087 FILLER_103_1561
*1088 FILLER_103_1564
*1089 FILLER_103_1628
*1090 FILLER_103_1632
*1091 FILLER_103_1635
*1092 FILLER_103_1699
*1093 FILLER_103_1703
*1094 FILLER_103_1706
*1095 FILLER_103_1738
*1096 FILLER_103_1754
*1097 FILLER_103_1758
*1098 FILLER_103_2
*1099 FILLER_103_208
*1100 FILLER_103_212
*1101 FILLER_103_215
*1102 FILLER_103_279
*1103 FILLER_103_283
*1104 FILLER_103_286
*1105 FILLER_103_350
*1106 FILLER_103_354
*1107 FILLER_103_357
*1108 FILLER_103_421
*1109 FILLER_103_425
*1110 FILLER_103_428
*1111 FILLER_103_492
*1112 FILLER_103_496
*1113 FILLER_103_499
*1114 FILLER_103_563
*1115 FILLER_103_567
*1116 FILLER_103_570
*1117 FILLER_103_634
*1118 FILLER_103_638
*1119 FILLER_103_641
*1120 FILLER_103_66
*1121 FILLER_103_70
*1122 FILLER_103_705
*1123 FILLER_103_709
*1124 FILLER_103_712
*1125 FILLER_103_73
*1126 FILLER_103_776
*1127 FILLER_103_780
*1128 FILLER_103_783
*1129 FILLER_103_847
*1130 FILLER_103_851
*1131 FILLER_103_854
*1132 FILLER_103_918
*1133 FILLER_103_922
*1134 FILLER_103_925
*1135 FILLER_103_989
*1136 FILLER_103_993
*1137 FILLER_103_996
*1138 FILLER_104_101
*1139 FILLER_104_1024
*1140 FILLER_104_1028
*1141 FILLER_104_1031
*1142 FILLER_104_105
*1143 FILLER_104_108
*1144 FILLER_104_1095
*1145 FILLER_104_1099
*1146 FILLER_104_1102
*1147 FILLER_104_1166
*1148 FILLER_104_1170
*1149 FILLER_104_1173
*1150 FILLER_104_1237
*1151 FILLER_104_1241
*1152 FILLER_104_1244
*1153 FILLER_104_1308
*1154 FILLER_104_1312
*1155 FILLER_104_1315
*1156 FILLER_104_1379
*1157 FILLER_104_1383
*1158 FILLER_104_1386
*1159 FILLER_104_1450
*1160 FILLER_104_1454
*1161 FILLER_104_1457
*1162 FILLER_104_1521
*1163 FILLER_104_1525
*1164 FILLER_104_1528
*1165 FILLER_104_1592
*1166 FILLER_104_1596
*1167 FILLER_104_1599
*1168 FILLER_104_1663
*1169 FILLER_104_1667
*1170 FILLER_104_1670
*1171 FILLER_104_172
*1172 FILLER_104_1734
*1173 FILLER_104_1738
*1174 FILLER_104_1741
*1175 FILLER_104_1757
*1176 FILLER_104_176
*1177 FILLER_104_179
*1178 FILLER_104_2
*1179 FILLER_104_243
*1180 FILLER_104_247
*1181 FILLER_104_250
*1182 FILLER_104_314
*1183 FILLER_104_318
*1184 FILLER_104_321
*1185 FILLER_104_34
*1186 FILLER_104_37
*1187 FILLER_104_385
*1188 FILLER_104_389
*1189 FILLER_104_392
*1190 FILLER_104_456
*1191 FILLER_104_460
*1192 FILLER_104_463
*1193 FILLER_104_527
*1194 FILLER_104_531
*1195 FILLER_104_534
*1196 FILLER_104_598
*1197 FILLER_104_602
*1198 FILLER_104_605
*1199 FILLER_104_669
*1200 FILLER_104_673
*1201 FILLER_104_676
*1202 FILLER_104_740
*1203 FILLER_104_744
*1204 FILLER_104_747
*1205 FILLER_104_811
*1206 FILLER_104_815
*1207 FILLER_104_818
*1208 FILLER_104_882
*1209 FILLER_104_886
*1210 FILLER_104_889
*1211 FILLER_104_953
*1212 FILLER_104_957
*1213 FILLER_104_960
*1214 FILLER_105_1060
*1215 FILLER_105_1064
*1216 FILLER_105_1067
*1217 FILLER_105_1131
*1218 FILLER_105_1135
*1219 FILLER_105_1138
*1220 FILLER_105_1202
*1221 FILLER_105_1206
*1222 FILLER_105_1209
*1223 FILLER_105_1273
*1224 FILLER_105_1277
*1225 FILLER_105_1280
*1226 FILLER_105_1344
*1227 FILLER_105_1348
*1228 FILLER_105_1351
*1229 FILLER_105_137
*1230 FILLER_105_141
*1231 FILLER_105_1415
*1232 FILLER_105_1419
*1233 FILLER_105_1422
*1234 FILLER_105_144
*1235 FILLER_105_1486
*1236 FILLER_105_1490
*1237 FILLER_105_1493
*1238 FILLER_105_1557
*1239 FILLER_105_1561
*1240 FILLER_105_1564
*1241 FILLER_105_1628
*1242 FILLER_105_1632
*1243 FILLER_105_1635
*1244 FILLER_105_1699
*1245 FILLER_105_1703
*1246 FILLER_105_1706
*1247 FILLER_105_1738
*1248 FILLER_105_1754
*1249 FILLER_105_1758
*1250 FILLER_105_2
*1251 FILLER_105_208
*1252 FILLER_105_212
*1253 FILLER_105_215
*1254 FILLER_105_279
*1255 FILLER_105_283
*1256 FILLER_105_286
*1257 FILLER_105_350
*1258 FILLER_105_354
*1259 FILLER_105_357
*1260 FILLER_105_421
*1261 FILLER_105_425
*1262 FILLER_105_428
*1263 FILLER_105_492
*1264 FILLER_105_496
*1265 FILLER_105_499
*1266 FILLER_105_563
*1267 FILLER_105_567
*1268 FILLER_105_570
*1269 FILLER_105_634
*1270 FILLER_105_638
*1271 FILLER_105_641
*1272 FILLER_105_66
*1273 FILLER_105_70
*1274 FILLER_105_705
*1275 FILLER_105_709
*1276 FILLER_105_712
*1277 FILLER_105_73
*1278 FILLER_105_776
*1279 FILLER_105_780
*1280 FILLER_105_783
*1281 FILLER_105_847
*1282 FILLER_105_851
*1283 FILLER_105_854
*1284 FILLER_105_918
*1285 FILLER_105_922
*1286 FILLER_105_925
*1287 FILLER_105_989
*1288 FILLER_105_993
*1289 FILLER_105_996
*1290 FILLER_106_101
*1291 FILLER_106_1024
*1292 FILLER_106_1028
*1293 FILLER_106_1031
*1294 FILLER_106_105
*1295 FILLER_106_108
*1296 FILLER_106_1095
*1297 FILLER_106_1099
*1298 FILLER_106_1102
*1299 FILLER_106_1166
*1300 FILLER_106_1170
*1301 FILLER_106_1173
*1302 FILLER_106_1237
*1303 FILLER_106_1241
*1304 FILLER_106_1244
*1305 FILLER_106_1308
*1306 FILLER_106_1312
*1307 FILLER_106_1315
*1308 FILLER_106_1379
*1309 FILLER_106_1383
*1310 FILLER_106_1386
*1311 FILLER_106_1450
*1312 FILLER_106_1454
*1313 FILLER_106_1457
*1314 FILLER_106_1521
*1315 FILLER_106_1525
*1316 FILLER_106_1528
*1317 FILLER_106_1592
*1318 FILLER_106_1596
*1319 FILLER_106_1599
*1320 FILLER_106_1663
*1321 FILLER_106_1667
*1322 FILLER_106_1670
*1323 FILLER_106_172
*1324 FILLER_106_1734
*1325 FILLER_106_1738
*1326 FILLER_106_1741
*1327 FILLER_106_1757
*1328 FILLER_106_176
*1329 FILLER_106_179
*1330 FILLER_106_2
*1331 FILLER_106_243
*1332 FILLER_106_247
*1333 FILLER_106_250
*1334 FILLER_106_314
*1335 FILLER_106_318
*1336 FILLER_106_321
*1337 FILLER_106_34
*1338 FILLER_106_37
*1339 FILLER_106_385
*1340 FILLER_106_389
*1341 FILLER_106_392
*1342 FILLER_106_456
*1343 FILLER_106_460
*1344 FILLER_106_463
*1345 FILLER_106_527
*1346 FILLER_106_531
*1347 FILLER_106_534
*1348 FILLER_106_598
*1349 FILLER_106_602
*1350 FILLER_106_605
*1351 FILLER_106_669
*1352 FILLER_106_673
*1353 FILLER_106_676
*1354 FILLER_106_740
*1355 FILLER_106_744
*1356 FILLER_106_747
*1357 FILLER_106_811
*1358 FILLER_106_815
*1359 FILLER_106_818
*1360 FILLER_106_882
*1361 FILLER_106_886
*1362 FILLER_106_889
*1363 FILLER_106_953
*1364 FILLER_106_957
*1365 FILLER_106_960
*1366 FILLER_107_1060
*1367 FILLER_107_1064
*1368 FILLER_107_1067
*1369 FILLER_107_1131
*1370 FILLER_107_1135
*1371 FILLER_107_1138
*1372 FILLER_107_1202
*1373 FILLER_107_1206
*1374 FILLER_107_1209
*1375 FILLER_107_1273
*1376 FILLER_107_1277
*1377 FILLER_107_1280
*1378 FILLER_107_1344
*1379 FILLER_107_1348
*1380 FILLER_107_1351
*1381 FILLER_107_137
*1382 FILLER_107_141
*1383 FILLER_107_1415
*1384 FILLER_107_1419
*1385 FILLER_107_1422
*1386 FILLER_107_144
*1387 FILLER_107_1486
*1388 FILLER_107_1490
*1389 FILLER_107_1493
*1390 FILLER_107_1557
*1391 FILLER_107_1561
*1392 FILLER_107_1564
*1393 FILLER_107_1628
*1394 FILLER_107_1632
*1395 FILLER_107_1635
*1396 FILLER_107_1699
*1397 FILLER_107_1703
*1398 FILLER_107_1706
*1399 FILLER_107_1738
*1400 FILLER_107_1754
*1401 FILLER_107_1758
*1402 FILLER_107_2
*1403 FILLER_107_208
*1404 FILLER_107_212
*1405 FILLER_107_215
*1406 FILLER_107_279
*1407 FILLER_107_283
*1408 FILLER_107_286
*1409 FILLER_107_350
*1410 FILLER_107_354
*1411 FILLER_107_357
*1412 FILLER_107_421
*1413 FILLER_107_425
*1414 FILLER_107_428
*1415 FILLER_107_492
*1416 FILLER_107_496
*1417 FILLER_107_499
*1418 FILLER_107_563
*1419 FILLER_107_567
*1420 FILLER_107_570
*1421 FILLER_107_634
*1422 FILLER_107_638
*1423 FILLER_107_641
*1424 FILLER_107_66
*1425 FILLER_107_70
*1426 FILLER_107_705
*1427 FILLER_107_709
*1428 FILLER_107_712
*1429 FILLER_107_73
*1430 FILLER_107_776
*1431 FILLER_107_780
*1432 FILLER_107_783
*1433 FILLER_107_847
*1434 FILLER_107_851
*1435 FILLER_107_854
*1436 FILLER_107_918
*1437 FILLER_107_922
*1438 FILLER_107_925
*1439 FILLER_107_989
*1440 FILLER_107_993
*1441 FILLER_107_996
*1442 FILLER_108_101
*1443 FILLER_108_1024
*1444 FILLER_108_1028
*1445 FILLER_108_1031
*1446 FILLER_108_105
*1447 FILLER_108_108
*1448 FILLER_108_1095
*1449 FILLER_108_1099
*1450 FILLER_108_1102
*1451 FILLER_108_1166
*1452 FILLER_108_1170
*1453 FILLER_108_1173
*1454 FILLER_108_1237
*1455 FILLER_108_1241
*1456 FILLER_108_1244
*1457 FILLER_108_1308
*1458 FILLER_108_1312
*1459 FILLER_108_1315
*1460 FILLER_108_1379
*1461 FILLER_108_1383
*1462 FILLER_108_1386
*1463 FILLER_108_1450
*1464 FILLER_108_1454
*1465 FILLER_108_1457
*1466 FILLER_108_1521
*1467 FILLER_108_1525
*1468 FILLER_108_1528
*1469 FILLER_108_1592
*1470 FILLER_108_1596
*1471 FILLER_108_1599
*1472 FILLER_108_1663
*1473 FILLER_108_1667
*1474 FILLER_108_1670
*1475 FILLER_108_172
*1476 FILLER_108_1734
*1477 FILLER_108_1738
*1478 FILLER_108_1741
*1479 FILLER_108_1757
*1480 FILLER_108_176
*1481 FILLER_108_179
*1482 FILLER_108_2
*1483 FILLER_108_243
*1484 FILLER_108_247
*1485 FILLER_108_250
*1486 FILLER_108_314
*1487 FILLER_108_318
*1488 FILLER_108_321
*1489 FILLER_108_34
*1490 FILLER_108_37
*1491 FILLER_108_385
*1492 FILLER_108_389
*1493 FILLER_108_392
*1494 FILLER_108_456
*1495 FILLER_108_460
*1496 FILLER_108_463
*1497 FILLER_108_527
*1498 FILLER_108_531
*1499 FILLER_108_534
*1500 FILLER_108_598
*1501 FILLER_108_602
*1502 FILLER_108_605
*1503 FILLER_108_669
*1504 FILLER_108_673
*1505 FILLER_108_676
*1506 FILLER_108_740
*1507 FILLER_108_744
*1508 FILLER_108_747
*1509 FILLER_108_811
*1510 FILLER_108_815
*1511 FILLER_108_818
*1512 FILLER_108_882
*1513 FILLER_108_886
*1514 FILLER_108_889
*1515 FILLER_108_953
*1516 FILLER_108_957
*1517 FILLER_108_960
*1518 FILLER_109_1060
*1519 FILLER_109_1064
*1520 FILLER_109_1067
*1521 FILLER_109_1131
*1522 FILLER_109_1135
*1523 FILLER_109_1138
*1524 FILLER_109_1202
*1525 FILLER_109_1206
*1526 FILLER_109_1209
*1527 FILLER_109_1273
*1528 FILLER_109_1277
*1529 FILLER_109_1280
*1530 FILLER_109_1344
*1531 FILLER_109_1348
*1532 FILLER_109_1351
*1533 FILLER_109_137
*1534 FILLER_109_141
*1535 FILLER_109_1415
*1536 FILLER_109_1419
*1537 FILLER_109_1422
*1538 FILLER_109_144
*1539 FILLER_109_1486
*1540 FILLER_109_1490
*1541 FILLER_109_1493
*1542 FILLER_109_1557
*1543 FILLER_109_1561
*1544 FILLER_109_1564
*1545 FILLER_109_1628
*1546 FILLER_109_1632
*1547 FILLER_109_1635
*1548 FILLER_109_1699
*1549 FILLER_109_1703
*1550 FILLER_109_1706
*1551 FILLER_109_1738
*1552 FILLER_109_1754
*1553 FILLER_109_1758
*1554 FILLER_109_2
*1555 FILLER_109_208
*1556 FILLER_109_212
*1557 FILLER_109_215
*1558 FILLER_109_279
*1559 FILLER_109_283
*1560 FILLER_109_286
*1561 FILLER_109_350
*1562 FILLER_109_354
*1563 FILLER_109_357
*1564 FILLER_109_421
*1565 FILLER_109_425
*1566 FILLER_109_428
*1567 FILLER_109_492
*1568 FILLER_109_496
*1569 FILLER_109_499
*1570 FILLER_109_563
*1571 FILLER_109_567
*1572 FILLER_109_570
*1573 FILLER_109_634
*1574 FILLER_109_638
*1575 FILLER_109_641
*1576 FILLER_109_66
*1577 FILLER_109_70
*1578 FILLER_109_705
*1579 FILLER_109_709
*1580 FILLER_109_712
*1581 FILLER_109_73
*1582 FILLER_109_776
*1583 FILLER_109_780
*1584 FILLER_109_783
*1585 FILLER_109_847
*1586 FILLER_109_851
*1587 FILLER_109_854
*1588 FILLER_109_918
*1589 FILLER_109_922
*1590 FILLER_109_925
*1591 FILLER_109_989
*1592 FILLER_109_993
*1593 FILLER_109_996
*1594 FILLER_10_101
*1595 FILLER_10_1024
*1596 FILLER_10_1028
*1597 FILLER_10_1031
*1598 FILLER_10_105
*1599 FILLER_10_108
*1600 FILLER_10_1095